packages/bdgd2opendss/bdgd2opendss-1.0.0.tar.gz/bdgd2opendss-1.0.0/tests/dss_models_output/sub__/1_BOES_1/RamaisBT_202312598_1_BOES_1_------1-----.dss
New "Line.RBT_327869" phases=2 bus1="UC327869.2.4" bus2="BT143911.2.4" linecode="50_2" length=0.014250000 units=km
New "Line.RBT_327872" phases=4 bus1="UC327872.1.2.3.4" bus2="ET3_3786.1.2.3.4" linecode="51_4" length=0.020260000 units=km
New "Line.RBT_327864" phases=2 bus1="UC327864.1.4" bus2="BT601882.1.4" linecode="108_2" length=0.011340000 units=km
New "Line.RBT_327870" phases=2 bus1="UC327870.1.4" bus2="BT125011.1.4" linecode="50_2" length=0.003710000 units=km
New "Line.RBT_327516" phases=2 bus1="UC327516.2.4" bus2="BT125071.2.4" linecode="50_2" length=0.019480000 units=km
New "Line.RBT_327518" phases=2 bus1="UC327518.2.4" bus2="BT125031.2.4" linecode="50_2" length=0.015060000 units=km
New "Line.RBT_327517" phases=3 bus1="UC327517.1.2.4" bus2="BT133651.1.2.4" linecode="83_3" length=0.028000000 units=km
New "Line.RBT_327231" phases=2 bus1="UC327231.1.4" bus2="BT582221.1.4" linecode="50_2" length=0.015000000 units=km
New "Line.RBT_327860" phases=2 bus1="UC327860.1.4" bus2="BT125011.1.4" linecode="50_2" length=0.001760000 units=km
New "Line.RBT_327858" phases=2 bus1="UC327858.1.4" bus2="BT133591.1.4" linecode="105_2" length=0.015000000 units=km
New "Line.RBT_327508" phases=2 bus1="UC327508.2.4" bus2="BT92761.2.4" linecode="105_2" length=0.005000000 units=km
New "Line.RBT_327857" phases=2 bus1="UC327857.2.4" bus2="ET3_3520.2.4" linecode="50_2" length=0.020390000 units=km
New "Line.RBT_327499" phases=2 bus1="UC327499.2.4" bus2="ET3_4220.2.4" linecode="50_2" length=0.030440000 units=km
New "Line.RBT_327246" phases=2 bus1="UC327246.2.4" bus2="BT111451.2.4" linecode="50_2" length=0.021850000 units=km
New "Line.RBT_327253" phases=2 bus1="UC327253.3.4" bus2="BT143911.3.4" linecode="50_2" length=0.010270000 units=km
New "Line.RBT_327256" phases=2 bus1="UC327256.2.4" bus2="BT23771.2.4" linecode="108_2" length=0.017000000 units=km
New "Line.RBT_326746" phases=2 bus1="UC326746.2.4" bus2="BT125061.2.4" linecode="108_2" length=0.001990000 units=km
New "Line.RBT_327497" phases=2 bus1="UC327497.1.4" bus2="BT206621.1.4" linecode="50_2" length=0.008170000 units=km
New "Line.RBT_327511" phases=2 bus1="UC327511.1.4" bus2="BT143941.1.4" linecode="105_2" length=0.008000000 units=km
New "Line.RBT_327258" phases=2 bus1="UC327258.1.4" bus2="BT133601.1.4" linecode="50_2" length=0.022550000 units=km
New "Line.RBT_328339" phases=3 bus1="UC328339.3.1.4" bus2="BT125031.3.1.4" linecode="83_3" length=0.013620000 units=km
New "Line.RBT_327513" phases=2 bus1="UC327513.1.4" bus2="ET3_3718.1.4" linecode="50_2" length=0.032340000 units=km
New "Line.RBT_327519" phases=4 bus1="UC327519.1.2.3.4" bus2="BT602001.1.2.3.4" linecode="51_4" length=0.012810000 units=km
New "Line.RBT_327259" phases=2 bus1="UC327259.1.4" bus2="BT371501.1.4" linecode="108_2" length=0.013000000 units=km
New "Line.RBT_328326" phases=2 bus1="UC328326.3.4" bus2="BT23801.3.4" linecode="50_2" length=0.013000000 units=km
New "Line.RBT_328325" phases=2 bus1="UC328325.3.4" bus2="BT124911.3.4" linecode="50_2" length=0.015120000 units=km
New "Line.RBT_328350" phases=2 bus1="UC328350.1.4" bus2="BT133661.1.4" linecode="50_2" length=0.019350000 units=km
New "Line.RBT_328349" phases=2 bus1="UC328349.1.4" bus2="BT143922.1.4" linecode="50_2" length=0.004050000 units=km
New "Line.RBT_2127388" phases=3 bus1="UC2127388.2.3.4" bus2="ET21_1202.2.3.4" linecode="119_3" length=0.014000000 units=km
New "Line.RBT_327254" phases=3 bus1="UC327254.1.2.4" bus2="BT626181.1.2.4" linecode="83_3" length=0.030000000 units=km
New "Line.RBT_328335" phases=2 bus1="UC328335.2.4" bus2="BT104762.2.4" linecode="50_2" length=0.028170000 units=km
New "Line.RBT_328342" phases=2 bus1="UC328342.2.4" bus2="BT133591.2.4" linecode="50_2" length=0.016000000 units=km
New "Line.RBT_326733" phases=2 bus1="UC326733.2.4" bus2="ET3_3173.2.4" linecode="50_2" length=0.020000000 units=km
New "Line.RBT_326332" phases=2 bus1="UC326332.1.4" bus2="ET3_3520.1.4" linecode="50_2" length=0.019010000 units=km
New "Line.RBT_326323" phases=2 bus1="UC326323.2.4" bus2="BT92891.2.4" linecode="50_2" length=0.010780000 units=km
New "Line.RBT_326742" phases=2 bus1="UC326742.2.4" bus2="BT148741.2.4" linecode="50_2" length=0.025900000 units=km
New "Line.RBT_326743" phases=2 bus1="UC326743.1.4" bus2="BT133581.1.4" linecode="105_2" length=0.013000000 units=km
New "Line.RBT_326748" phases=2 bus1="UC326748.2.4" bus2="BT92741.2.4" linecode="50_2" length=0.004580000 units=km
New "Line.RBT_326337" phases=2 bus1="UC326337.3.4" bus2="BT89871.3.4" linecode="50_2" length=0.015000000 units=km
New "Line.RBT_326734" phases=2 bus1="UC326734.1.4" bus2="BT149351.1.4" linecode="50_2" length=0.008000000 units=km
New "Line.RBT_326319" phases=4 bus1="UC326319.1.2.3.4" bus2="BT778711.1.2.3.4" linecode="51_4" length=0.011000000 units=km
New "Line.RBT_2126256" phases=4 bus1="UC2126256.1.2.3.4" bus2="BT71451.1.2.3.4" linecode="51_4" length=0.012000000 units=km
New "Line.RBT_2113007" phases=4 bus1="UC2113007.1.2.3.4" bus2="BT645021.1.2.3.4" linecode="51_4" length=0.013000000 units=km
New "Line.RBT_2113009" phases=4 bus1="UC2113009.1.2.3.4" bus2="BT70721.1.2.3.4" linecode="51_4" length=0.029000000 units=km
New "Line.RBT_2113010" phases=2 bus1="UC2113010.1.4" bus2="BT70611.1.4" linecode="108_2" length=0.010000000 units=km
New "Line.RBT_2113011" phases=4 bus1="UC2113011.1.2.3.4" bus2="BT70731.1.2.3.4" linecode="51_4" length=0.021000000 units=km
New "Line.RBT_2113012" phases=4 bus1="UC2113012.1.2.3.4" bus2="BT70681.1.2.3.4" linecode="51_4" length=0.017000000 units=km
New "Line.RBT_2113013" phases=4 bus1="UC2113013.1.2.3.4" bus2="ET21_6123.1.2.3.4" linecode="51_4" length=0.014000000 units=km
New "Line.RBT_2113014" phases=4 bus1="UC2113014.1.2.3.4" bus2="BT27681.1.2.3.4" linecode="51_4" length=0.009000000 units=km
New "Line.RBT_2113015" phases=4 bus1="UC2113015.1.2.3.4" bus2="BT14541.1.2.3.4" linecode="51_4" length=0.027000000 units=km
New "Line.RBT_2113002" phases=4 bus1="UC2113002.1.2.3.4" bus2="BT10251.1.2.3.4" linecode="51_4" length=0.024000000 units=km
New "Line.RBT_2113003" phases=4 bus1="UC2113003.1.2.3.4" bus2="BT70531.1.2.3.4" linecode="51_4" length=0.016000000 units=km
New "Line.RBT_2113004" phases=4 bus1="UC2113004.1.2.3.4" bus2="BT151021.1.2.3.4" linecode="51_4" length=0.020000000 units=km
New "Line.RBT_2113058" phases=4 bus1="UC2113058.1.2.3.4" bus2="BT327771.1.2.3.4" linecode="51_4" length=0.012000000 units=km
New "Line.RBT_2113053" phases=4 bus1="UC2113053.1.2.3.4" bus2="BT70751.1.2.3.4" linecode="51_4" length=0.028000000 units=km
New "Line.RBT_2113054" phases=4 bus1="UC2113054.1.2.3.4" bus2="BT70751.1.2.3.4" linecode="51_4" length=0.012000000 units=km
New "Line.RBT_2113055" phases=4 bus1="UC2113055.1.2.3.4" bus2="BT7501.1.2.3.4" linecode="51_4" length=0.012000000 units=km
New "Line.RBT_2113056" phases=4 bus1="UC2113056.1.2.3.4" bus2="ET21_2906.1.2.3.4" linecode="51_4" length=0.021000000 units=km
New "Line.RBT_2113057" phases=4 bus1="UC2113057.1.2.3.4" bus2="BT340381.1.2.3.4" linecode="51_4" length=0.017000000 units=km
New "Line.RBT_2124342" phases=4 bus1="UC2124342.1.2.3.4" bus2="BT621581.1.2.3.4" linecode="51_4" length=0.012000000 units=km
New "Line.RBT_2113075" phases=4 bus1="UC2113075.1.2.3.4" bus2="BT317501.1.2.3.4" linecode="51_4" length=0.017790000 units=km
New "Line.RBT_2113076" phases=3 bus1="UC2113076.1.2.4" bus2="ET21_121.1.2.4" linecode="83_3" length=0.019890000 units=km
New "Line.RBT_2113052" phases=2 bus1="UC2113052.1.4" bus2="BT71661.1.4" linecode="50_2" length=0.018000000 units=km
New "Line.RBT_2124323" phases=2 bus1="UC2124323.1.4" bus2="BT27691.1.4" linecode="50_2" length=0.012000000 units=km
New "Line.RBT_2113051" phases=2 bus1="UC2113051.1.4" bus2="BT71661.1.4" linecode="108_2" length=0.027000000 units=km
New "Line.RBT_2113456" phases=4 bus1="UC2113456.1.2.3.4" bus2="BT105041.1.2.3.4" linecode="51_4" length=0.008000000 units=km
New "Line.RBT_2118712" phases=4 bus1="UC2118712.1.2.3.4" bus2="BT333031.1.2.3.4" linecode="51_4" length=0.022470000 units=km
New "Line.RBT_2122823" phases=2 bus1="UC2122823.1.4" bus2="ET21_4314.1.4" linecode="108_2" length=0.012350000 units=km
New "Line.RBT_2113455" phases=4 bus1="UC2113455.1.2.3.4" bus2="BT761461.1.2.3.4" linecode="51_4" length=0.021000000 units=km
New "Line.RBT_2118355" phases=2 bus1="UC2118355.1.4" bus2="BT27661.1.4" linecode="50_2" length=0.030000000 units=km
New "Line.RBT_2121970" phases=4 bus1="UC2121970.1.2.3.4" bus2="ET21_144.1.2.3.4" linecode="51_4" length=0.014170000 units=km
New "Line.RBT_2114379" phases=4 bus1="UC2114379.1.2.3.4" bus2="BT70521.1.2.3.4" linecode="51_4" length=0.019000000 units=km
New "Line.RBT_2113022" phases=4 bus1="UC2113022.1.2.3.4" bus2="BT27661.1.2.3.4" linecode="51_4" length=0.013000000 units=km
New "Line.RBT_2113023" phases=2 bus1="UC2113023.1.4" bus2="BT333031.1.4" linecode="50_2" length=0.023000000 units=km
New "Line.RBT_2113019" phases=4 bus1="UC2113019.1.2.3.4" bus2="BT133461.1.2.3.4" linecode="51_4" length=0.012000000 units=km
New "Line.RBT_2113020" phases=2 bus1="UC2113020.2.4" bus2="BT27631.2.4" linecode="50_2" length=0.030850000 units=km
New "Line.RBT_326318" phases=2 bus1="UC326318.2.4" bus2="BT144721.2.4" linecode="105_2" length=0.014000000 units=km
New "Line.RBT_325976" phases=2 bus1="UC325976.1.4" bus2="BT6742.1.4" linecode="50_2" length=0.019000000 units=km
New "Line.RBT_339568" phases=3 bus1="UC339568.1.2.4" bus2="BT673831.1.2.4" linecode="83_3" length=0.003000000 units=km
New "Line.RBT_339570" phases=2 bus1="UC339570.2.4" bus2="BT554921.2.4" linecode="50_2" length=0.013000000 units=km
New "Line.RBT_339572" phases=2 bus1="UC339572.2.4" bus2="BT754721.2.4" linecode="50_2" length=0.033000000 units=km
New "Line.RBT_339571" phases=2 bus1="UC339571.3.4" bus2="BT821011.3.4" linecode="50_2" length=0.009000000 units=km
New "Line.RBT_339575" phases=2 bus1="UC339575.3.4" bus2="BT792191.3.4" linecode="50_2" length=0.012000000 units=km
New "Line.RBT_339577" phases=4 bus1="UC339577.1.2.3.4" bus2="BT752791.1.2.3.4" linecode="51_4" length=0.020000000 units=km
New "Line.RBT_339576" phases=2 bus1="UC339576.2.4" bus2="BT768251.2.4" linecode="50_2" length=0.033000000 units=km
New "Line.RBT_339534" phases=4 bus1="UC339534.1.2.3.4" bus2="BT821301.1.2.3.4" linecode="122_4" length=0.019000000 units=km
New "Line.RBT_311811" phases=2 bus1="UC311811.1.4" bus2="BT104781.1.4" linecode="50_2" length=0.020710000 units=km
New "Line.RBT_339538" phases=2 bus1="UC339538.2.4" bus2="BT23611.2.4" linecode="50_2" length=0.018000000 units=km
New "Line.RBT_339539" phases=2 bus1="UC339539.1.4" bus2="BT23641.1.4" linecode="50_2" length=0.020000000 units=km
New "Line.RBT_339531" phases=2 bus1="UC339531.1.4" bus2="BT150061.1.4" linecode="50_2" length=0.010000000 units=km
New "Line.RBT_339545" phases=2 bus1="UC339545.1.4" bus2="BT132311.1.4" linecode="50_2" length=0.004000000 units=km
New "Line.RBT_339543" phases=2 bus1="UC339543.3.4" bus2="ET3_6083.3.4" linecode="50_2" length=0.003000000 units=km
New "Line.RBT_339549" phases=2 bus1="UC339549.2.4" bus2="BT555001.2.4" linecode="50_2" length=0.005000000 units=km
New "Line.RBT_339590" phases=2 bus1="UC339590.1.4" bus2="BT726571.1.4" linecode="50_2" length=0.003000000 units=km
New "Line.RBT_321190" phases=2 bus1="UC321190.1.4" bus2="BT333301.1.4" linecode="50_2" length=0.017550000 units=km
New "Line.RBT_339404" phases=2 bus1="UC339404.2.4" bus2="BT144051.2.4" linecode="50_2" length=0.016000000 units=km
New "Line.RBT_339406" phases=2 bus1="UC339406.1.4" bus2="BT615831.1.4" linecode="50_2" length=0.005000000 units=km
New "Line.RBT_339405" phases=4 bus1="UC339405.1.2.3.4" bus2="BT745021.1.2.3.4" linecode="51_4" length=0.002000000 units=km
New "Line.RBT_339407" phases=4 bus1="UC339407.1.2.3.4" bus2="BT744951.1.2.3.4" linecode="51_4" length=0.014000000 units=km
New "Line.RBT_339408" phases=3 bus1="UC339408.1.2.4" bus2="BT819691.1.2.4" linecode="83_3" length=0.030000000 units=km
New "Line.RBT_339410" phases=2 bus1="UC339410.3.4" bus2="ET3_5697.3.4" linecode="105_2" length=0.002200000 units=km
New "Line.RBT_339357" phases=4 bus1="UC339357.1.2.3.4" bus2="BT692931.1.2.3.4" linecode="51_4" length=0.014000000 units=km
New "Line.RBT_339356" phases=2 bus1="UC339356.2.4" bus2="BT123781.2.4" linecode="50_2" length=0.010000000 units=km
New "Line.RBT_339354" phases=2 bus1="UC339354.2.4" bus2="BT554931.2.4" linecode="105_2" length=0.021000000 units=km
New "Line.RBT_339353" phases=2 bus1="UC339353.1.4" bus2="BT695781.1.4" linecode="105_2" length=0.013380000 units=km
New "Line.RBT_338470" phases=2 bus1="UC338470.1.4" bus2="BT695781.1.4" linecode="105_2" length=0.014360000 units=km
New "Line.RBT_321193" phases=2 bus1="UC321193.2.4" bus2="BT104771.2.4" linecode="50_2" length=0.004640000 units=km
New "Line.RBT_323658" phases=2 bus1="UC323658.2.4" bus2="BT111441.2.4" linecode="50_2" length=0.020310000 units=km
New "Line.RBT_323660" phases=2 bus1="UC323660.2.4" bus2="BT377971.2.4" linecode="50_2" length=0.019240000 units=km
New "Line.RBT_312678" phases=2 bus1="UC312678.1.4" bus2="BT149421.1.4" linecode="108_2" length=0.009000000 units=km
New "Line.RBT_312679" phases=2 bus1="UC312679.2.4" bus2="ET3_5929.2.4" linecode="50_2" length=0.018000000 units=km
New "Line.RBT_318458" phases=2 bus1="UC318458.2.4" bus2="BT787252.2.4" linecode="50_2" length=0.017000000 units=km
New "Line.RBT_318463" phases=2 bus1="UC318463.2.4" bus2="BT295211.2.4" linecode="50_2" length=0.023000000 units=km
New "Line.RBT_321054" phases=4 bus1="UC321054.1.2.3.4" bus2="BT89881.1.2.3.4" linecode="51_4" length=0.030000000 units=km
New "Line.RBT_321188" phases=2 bus1="UC321188.1.4" bus2="BT803651.1.4" linecode="105_2" length=0.016000000 units=km
New "Line.RBT_325115" phases=2 bus1="UC325115.1.4" bus2="BT582221.1.4" linecode="50_2" length=0.003920000 units=km
New "Line.RBT_322554" phases=2 bus1="UC322554.2.4" bus2="BT111391.2.4" linecode="50_2" length=0.010590000 units=km
New "Line.RBT_324279" phases=2 bus1="UC324279.3.4" bus2="BT787261.3.4" linecode="50_2" length=0.012020000 units=km
New "Line.RBT_312672" phases=2 bus1="UC312672.3.4" bus2="BT104781.3.4" linecode="105_2" length=0.025800000 units=km
New "Line.RBT_311832" phases=2 bus1="UC311832.3.4" bus2="BT92721.3.4" linecode="50_2" length=0.016130000 units=km
New "Line.RBT_311780" phases=2 bus1="UC311780.2.4" bus2="BT20601.2.4" linecode="50_2" length=0.007000000 units=km
New "Line.RBT_311830" phases=2 bus1="UC311830.1.4" bus2="BT92721.1.4" linecode="50_2" length=0.007230000 units=km
New "Line.RBT_339352" phases=2 bus1="UC339352.3.4" bus2="BT757071.3.4" linecode="105_2" length=0.013860000 units=km
New "Line.RBT_339360" phases=2 bus1="UC339360.2.4" bus2="BT768251.2.4" linecode="105_2" length=0.019340000 units=km
New "Line.RBT_339358" phases=2 bus1="UC339358.3.4" bus2="BT692911.3.4" linecode="105_2" length=0.022770000 units=km
New "Line.RBT_338943" phases=4 bus1="UC338943.1.2.3.4" bus2="BT739551.1.2.3.4" linecode="51_4" length=0.017560000 units=km
New "Line.RBT_338945" phases=2 bus1="UC338945.2.4" bus2="BT673371.2.4" linecode="105_2" length=0.014650000 units=km
New "Line.RBT_338946" phases=2 bus1="UC338946.1.4" bus2="ET3_2126.1.4" linecode="105_2" length=0.012680000 units=km
New "Line.RBT_321051" phases=4 bus1="UC321051.1.2.3.4" bus2="BT463921.1.2.3.4" linecode="51_4" length=0.010000000 units=km
New "Line.RBT_321053" phases=4 bus1="UC321053.1.2.3.4" bus2="BT341911.1.2.3.4" linecode="51_4" length=0.008000000 units=km
New "Line.RBT_312661" phases=2 bus1="UC312661.3.4" bus2="BT125011.3.4" linecode="105_2" length=0.017000000 units=km
New "Line.RBT_312662" phases=2 bus1="UC312662.3.4" bus2="BT125051.3.4" linecode="50_2" length=0.018350000 units=km
New "Line.RBT_323371" phases=4 bus1="UC323371.1.2.3.4" bus2="BT22861.1.2.3.4" linecode="51_4" length=0.026000000 units=km
New "Line.RBT_323376" phases=2 bus1="UC323376.1.4" bus2="BT327181.1.4" linecode="50_2" length=0.006540000 units=km
New "Line.RBT_327498" phases=2 bus1="UC327498.1.4" bus2="BT559761.1.4" linecode="50_2" length=0.025000000 units=km
New "Line.RBT_338950" phases=2 bus1="UC338950.2.4" bus2="BT792401.2.4" linecode="50_2" length=0.002000000 units=km
New "Line.RBT_325110" phases=4 bus1="UC325110.1.2.3.4" bus2="ET3_3343.1.2.3.4" linecode="51_4" length=0.019230000 units=km
New "Line.RBT_339214" phases=3 bus1="UC339214.2.3.4" bus2="BT744931.2.3.4" linecode="83_3" length=0.010000000 units=km
New "Line.RBT_320166" phases=4 bus1="UC320166.1.2.3.4" bus2="ET3_2531.1.2.3.4" linecode="51_4" length=0.023000000 units=km
New "Line.RBT_320167" phases=4 bus1="UC320167.1.2.3.4" bus2="ET3_1429.1.2.3.4" linecode="51_4" length=0.005350000 units=km
New "Line.RBT_323366" phases=2 bus1="UC323366.2.4" bus2="BT597351.2.4" linecode="108_2" length=0.021000000 units=km
New "Line.RBT_321047" phases=2 bus1="UC321047.1.4" bus2="BT111351.1.4" linecode="108_2" length=0.021380000 units=km
New "Line.RBT_325105" phases=2 bus1="UC325105.3.4" bus2="BT150001.3.4" linecode="50_2" length=0.002920000 units=km
New "Line.RBT_325106" phases=2 bus1="UC325106.2.4" bus2="BT327201.2.4" linecode="50_2" length=0.005000000 units=km
New "Line.RBT_339217" phases=2 bus1="UC339217.2.4" bus2="BT821351.2.4" linecode="105_2" length=0.024640000 units=km
New "Line.RBT_339215" phases=3 bus1="UC339215.2.3.4" bus2="BT745131.2.3.4" linecode="83_3" length=0.017000000 units=km
New "Line.RBT_320158" phases=4 bus1="UC320158.1.2.3.4" bus2="BT104931.1.2.3.4" linecode="51_4" length=0.020000000 units=km
New "Line.RBT_320164" phases=3 bus1="UC320164.3.1.4" bus2="BT787341.3.1.4" linecode="83_3" length=0.030000000 units=km
New "Line.RBT_312667" phases=2 bus1="UC312667.3.4" bus2="BT321741.3.4" linecode="50_2" length=0.009460000 units=km
New "Line.RBT_318378" phases=4 bus1="UC318378.1.2.3.4" bus2="BT81792.1.2.3.4" linecode="51_4" length=0.015000000 units=km
New "Line.RBT_321042" phases=2 bus1="UC321042.3.4" bus2="BT83852.3.4" linecode="50_2" length=0.015000000 units=km
New "Line.RBT_323035" phases=2 bus1="UC323035.3.4" bus2="BT132391.3.4" linecode="50_2" length=0.002070000 units=km
New "Line.RBT_323068" phases=2 bus1="UC323068.1.4" bus2="BT597351.1.4" linecode="50_2" length=0.017000000 units=km
New "Line.RBT_323362" phases=4 bus1="UC323362.1.2.3.4" bus2="BT111841.1.2.3.4" linecode="58_4" length=0.030000000 units=km
New "Line.RBT_312653" phases=2 bus1="UC312653.1.4" bus2="BT126381.1.4" linecode="50_2" length=0.015000000 units=km
New "Line.RBT_312654" phases=2 bus1="UC312654.1.4" bus2="BT23701.1.4" linecode="50_2" length=0.006000000 units=km
New "Line.RBT_318368" phases=2 bus1="UC318368.3.4" bus2="BT111431.3.4" linecode="50_2" length=0.013940000 units=km
New "Line.RBT_318369" phases=4 bus1="UC318369.1.2.3.4" bus2="ET3_2265.1.2.3.4" linecode="51_4" length=0.015010000 units=km
New "Line.RBT_318376" phases=2 bus1="UC318376.2.4" bus2="BT132421.2.4" linecode="108_2" length=0.005000000 units=km
New "Line.RBT_324829" phases=2 bus1="UC324829.2.4" bus2="ET3_5969.2.4" linecode="50_2" length=0.009110000 units=km
New "Line.RBT_323029" phases=2 bus1="UC323029.2.4" bus2="BT104781.2.4" linecode="50_2" length=0.024540000 units=km
New "Line.RBT_321036" phases=4 bus1="UC321036.1.2.3.4" bus2="ET3_120.1.2.3.4" linecode="51_4" length=0.031790000 units=km
New "Line.RBT_319992" phases=2 bus1="UC319992.2.4" bus2="BT390811.2.4" linecode="50_2" length=0.030000000 units=km
New "Line.RBT_339219" phases=2 bus1="UC339219.3.4" bus2="BT821351.3.4" linecode="105_2" length=0.019000000 units=km
New "Line.RBT_339220" phases=4 bus1="UC339220.1.2.3.4" bus2="BT757091.1.2.3.4" linecode="51_4" length=0.012610000 units=km
New "Line.RBT_339228" phases=4 bus1="UC339228.1.2.3.4" bus2="ET3_4616.1.2.3.4" linecode="51_4" length=0.012700000 units=km
New "Line.RBT_339229" phases=4 bus1="UC339229.1.2.3.4" bus2="ET3_4616.1.2.3.4" linecode="51_4" length=0.017940000 units=km
New "Line.RBT_339230" phases=2 bus1="UC339230.2.4" bus2="ET3_5646.2.4" linecode="105_2" length=0.020000000 units=km
New "Line.RBT_339223" phases=3 bus1="UC339223.2.3.4" bus2="BT792411.2.3.4" linecode="83_3" length=0.011320000 units=km
New "Line.RBT_312677" phases=2 bus1="UC312677.2.4" bus2="ET3_786.2.4" linecode="50_2" length=0.009880000 units=km
New "Line.RBT_339098" phases=4 bus1="UC339098.1.2.3.4" bus2="BT821331.1.2.3.4" linecode="51_4" length=0.013000000 units=km
New "Line.RBT_328726" phases=2 bus1="UC328726.3.4" bus2="BT111351.3.4" linecode="105_2" length=0.006000000 units=km
New "Line.RBT_339041" phases=4 bus1="UC339041.1.2.3.4" bus2="BT792421.1.2.3.4" linecode="51_4" length=0.016940000 units=km
New "Line.RBT_339100" phases=2 bus1="UC339100.2.4" bus2="BT792411.2.4" linecode="105_2" length=0.020710000 units=km
New "Line.RBT_339043" phases=2 bus1="UC339043.2.4" bus2="BT778261.2.4" linecode="105_2" length=0.022000000 units=km
New "Line.RBT_339042" phases=3 bus1="UC339042.2.3.4" bus2="BT680181.2.3.4" linecode="83_3" length=0.020260000 units=km
New "Line.RBT_339044" phases=2 bus1="UC339044.2.4" bus2="BT819691.2.4" linecode="105_2" length=0.016000000 units=km
New "Line.RBT_339045" phases=3 bus1="UC339045.1.2.4" bus2="BT813301.1.2.4" linecode="83_3" length=0.027000000 units=km
New "Line.RBT_339046" phases=2 bus1="UC339046.3.4" bus2="BT792251.3.4" linecode="105_2" length=0.022650000 units=km
New "Line.RBT_339050" phases=3 bus1="UC339050.1.2.4" bus2="BT149411.1.2.4" linecode="83_3" length=0.033690000 units=km
New "Line.RBT_338912" phases=4 bus1="UC338912.1.2.3.4" bus2="BT423071.1.2.3.4" linecode="51_4" length=0.005000000 units=km
New "Line.RBT_338915" phases=2 bus1="UC338915.3.4" bus2="BT111441.3.4" linecode="105_2" length=0.005000000 units=km
New "Line.RBT_338916" phases=2 bus1="UC338916.2.4" bus2="BT111441.2.4" linecode="105_2" length=0.005000000 units=km
New "Line.RBT_338914" phases=4 bus1="UC338914.1.2.3.4" bus2="BT144721.1.2.3.4" linecode="51_4" length=0.031000000 units=km
New "Line.RBT_320699" phases=2 bus1="UC320699.1.4" bus2="BT143841.1.4" linecode="50_2" length=0.002670000 units=km
New "Line.RBT_338913" phases=2 bus1="UC338913.3.4" bus2="BT132351.3.4" linecode="105_2" length=0.005000000 units=km
New "Line.RBT_338905" phases=3 bus1="UC338905.2.3.4" bus2="BT673831.2.3.4" linecode="83_3" length=0.020000000 units=km
New "Line.RBT_338902" phases=2 bus1="UC338902.1.4" bus2="BT624311.1.4" linecode="50_2" length=0.030000000 units=km
New "Line.RBT_338900" phases=3 bus1="UC338900.1.2.4" bus2="BT809101.1.2.4" linecode="83_3" length=0.010000000 units=km
New "Line.RBT_338897" phases=2 bus1="UC338897.2.4" bus2="BT555001.2.4" linecode="50_2" length=0.017000000 units=km
New "Line.RBT_338896" phases=2 bus1="UC338896.2.4" bus2="BT673821.2.4" linecode="50_2" length=0.029000000 units=km
New "Line.RBT_338894" phases=2 bus1="UC338894.1.4" bus2="BT673891.1.4" linecode="147_P_2" length=0.016000000 units=km
New "Line.RBT_338895" phases=4 bus1="UC338895.1.2.3.4" bus2="BT144011.1.2.3.4" linecode="51_4" length=0.020000000 units=km
New "Line.RBT_338893" phases=2 bus1="UC338893.2.4" bus2="BT555001.2.4" linecode="105_2" length=0.021000000 units=km
New "Line.RBT_338799" phases=3 bus1="UC338799.1.2.4" bus2="BT708231.1.2.4" linecode="83_3" length=0.007000000 units=km
New "Line.RBT_338797" phases=4 bus1="UC338797.1.2.3.4" bus2="BT791391.1.2.3.4" linecode="51_4" length=0.005000000 units=km
New "Line.RBT_338798" phases=2 bus1="UC338798.1.4" bus2="BT673891.1.4" linecode="105_2" length=0.020000000 units=km
New "Line.RBT_338793" phases=3 bus1="UC338793.1.2.4" bus2="BT149951.1.2.4" linecode="83_3" length=0.008170000 units=km
New "Line.RBT_338794" phases=4 bus1="UC338794.1.2.3.4" bus2="ET3_3393.1.2.3.4" linecode="51_4" length=0.024000000 units=km
New "Line.RBT_338795" phases=2 bus1="UC338795.3.4" bus2="BT792401.3.4" linecode="105_2" length=0.018000000 units=km
...
